Circuit: * E:\Kue projekt\Draft1.asc

Warning: Multiple definitions of model "2scr375p" Type: BJT
Warning: Multiple definitions of model "bc857b" Type: BJT
Warning: Multiple definitions of model "bc847c" Type: BJT
Warning: Multiple definitions of model "bc847b" Type: BJT
Direct Newton iteration for .op point succeeded.

Date: Wed May 17 16:07:10 2023
Total elapsed time: 0.064 seconds.

tnom = 27
temp = 27
method = modified trap
totiter = 4418
traniter = 4413
tranpoints = 1958
accept = 1746
rejected = 212
matrix size = 9
fillins = 0
solver = Normal
Avg thread counts: 1.2/1.5/1.5/1.2
Matrix Compiler1:      26 opcodes  0.1/[0.1]/0.1
Matrix Compiler2: 667 bytes object code size  0.1/0.1/[0.1]

